/*--------------------------------*- C++ -*----------------------------------*\
| =========                 |                                                 |
| \\      /  F ield         | foam-extend: Open Source CFD                    |
|  \\    /   O peration     | Version:  3.0                                   |
|   \\  /    A nd           | Web:         http://www.extend-project.de       |
|    \\/     M anipulation  |                                                 |
\*---------------------------------------------------------------------------*/
FoamFile
{
    version     2.0;
    format      binary;
    class       dictionary;
    location    "constant";
    object      mechanicalProperties;
}
// * * * * * * * * * * * * * * * * * * * * * * * * * * * * * * * * * * * * * //

planeStress     no;

mechanical
(
    steel
    {

type linearGTN;


        rho             rho [1 -3 0 0 0 0 0] 7800;
        E               E [1 -1 -2 0 0 0 0] 200e9;//70e9;//69000e6;// 210e9;// 
        nu              nu [0 0 0 0 0 0 0] 0.3;//PRATIO;//0.33;//0.28;//0.33;
        sigmaY0             sigmaY0 [1 -1 -2 0 0 0 0]400e6;//0.233333e9;//320e6;
        rInf             rInf [1 -1 -2 0 0 0 0]200e6;//0.233333e9;//320e6;
        gamma             gamma [0 0 0 0 0 0 0]200e6;//0.233333e9;//320e6;
        monolithic true;
        fileName        "$FOAM_CASE/constant/plasticStrainVsYieldStress";
        outOfBounds     clamp;
        solvePressureEqn no;
        debug no;
        smoothPressure false;
        triaxiality false;

        q1            q1 [0 0 0 0 0 0 0] 1.5;
        q2            q2 [0 0 0 0 0 0 0] 1;
        q3            q3 [0 0 0 0 0 0 0] 2.25;
        f0            f0 [0 0 0 0 0 0 0] 0.002;//0.005;//0.000242;
        kw            kw [0 0 0 0 0 0 0] 0;//5;//0.000242;

        sN            sN [0 0 0 0 0 0 0] 0.04;
        fN            fN [0 0 0 0 0 0 0] 0.08;//0.25;
        fC            fC [0 0 0 0 0 0 0] 1.0;//0.12;
        fU            fC [0 0 0 0 0 0 0] 0.6;
        fF            fC [0 0 0 0 0 0 0] 1.0;//0.3;
       epsilonN            epsilonN  [0 0 0 0 0 0 0] 0.1;


s0            s0 [1 -1 -2 0 0 0 0] 1.25e6;//S0VALUE;//0.4e6;//;// 0.4e6;//0.4e6;//5e7;
        b            b [0 0 0 0 0 0 0]1;//0.9;//0.9;//
epsilonD epsilonD [0 0 0 0 0 0 0]10;
charLength charLength [0 1 0 0 0 0 0] 0;
rInf rInf [0 0 0 0 0 0 0] 589e6;
n n [0 0 0 0 0 0 0] 0.216;//

        fractureP            fractureP  [0 0 0 0 0 0 0] 0.5;
        viscousD            viscousD [0 0 0 0 0 0 0] 0.0;


    }
);


// ************************************************************************* //
