/*--------------------------------*- C++ -*----------------------------------*\
| =========                 |                                                 |
| \\      /  F ield         | foam-extend: Open Source CFD                    |
|  \\    /   O peration     | Version:     4.0                                |
|   \\  /    A nd           | Web:         http://www.foam-extend.org         |
|    \\/     M anipulation  |                                                 |
\*---------------------------------------------------------------------------*/
FoamFile
{
    version     2.0;
    format      ascii;
    class       polyBoundaryMesh;
    location    "constant/polyMesh";
    object      boundary;
}
// * * * * * * * * * * * * * * * * * * * * * * * * * * * * * * * * * * * * * //

7
(
    left
    {
        type            symmetryPlane;
        nFaces          42;
        startFace       1855;
    }
    right
    {
        type            patch;
        nFaces          42;
        startFace       1897;
    }
    down
    {
        type            symmetryPlane;
        nFaces          42;
        startFace       1939;
    }
    up
    {
        type            patch;
        nFaces          42;
        startFace       1981;
    }
    notchedFace
    {
        type            patch;
        nFaces          42;
        startFace       2023;
    }
    front
    {
        type            patch;
        nFaces          245;
        startFace       2065;
    }
    back
    {
        type            patch;
        nFaces          245;
        startFace       2310;
    }
)


// ************************************************************************* //
