/*--------------------------------*- C++ -*----------------------------------*\
| =========                 |                                                 |
| \\      /  F ield         | foam-extend: Open Source CFD                    |
|  \\    /   O peration     | Version:     3.0                                |
|   \\  /    A nd           | Web:         http://www.extend-project.de       |
|    \\/     M anipulation  |                                                 |
\*---------------------------------------------------------------------------*/
FoamFile
{
    version     2.0;
    format      ascii;
    class       volScalarField;
    object      damageNonLocal;
}
// * * * * * * * * * * * * * * * * * * * * * * * * * * * * * * * * * * * * * //

dimensions      [0 0 0 0 0 0 0];

internalField   uniform 0;

boundaryField
{
    down
    {
        type            symmetryPlane;
    }
    axis
    {
        type            empty;

    }
    right
    {
        type            zeroGradient;
        //traction        uniform ( 0 0 0 );
        //pressure        uniform 0;
        //value           uniform (0 0 0);
    }
    up
    {
       type  zeroGradient;
       //value uniform (0 51e-6 0);
    }
    notchedFace
    {
        type          zeroGradient;
//  uniform ( 0 0 0 );
        //pressure        uniform 0;
        //value           uniform (0 0 0);
    }
    front
    {
        type            solidWedge;
        patchType       wedge;
        value           uniform 0;
    }
    back
    {
        type            solidWedge;
        patchType       wedge;
        value           uniform 0;
    }
}

// ************************************************************************* //
