/*--------------------------------*- C++ -*----------------------------------*\
| =========                 |                                                 |
| \\      /  F ield         | OpenFOAM Extend Project: Open Source CFD        |
|  \\    /   O peration     | Version:  1.6-ext                               |
|   \\  /    A nd           | Web:      www.extend-project.de                 |
|    \\/     M anipulation  |                                                 |
\*---------------------------------------------------------------------------*/
FoamFile
{
    version     2.0;
    format      ascii;
    class       volVectorField;
    location    "0";
    object      DD;
}
// * * * * * * * * * * * * * * * * * * * * * * * * * * * * * * * * * * * * * //

dimensions      [0 1 0 0 0 0 0];

internalField   uniform (0 0 0);

boundaryField
{
    right
    {//type empty;
        type            solidTraction;
        traction        uniform (0 0 0);
        pressure        uniform 0;
        value           uniform (0 0 0);


/*       type   fixedDisplacement;*/
/*       value uniform (0.003 0 0);*/
    }

    left
    {//type empty;
//type symmetryPlane;
         type            solidTraction;
        traction        uniform (0 0 0);
        pressure        uniform 0;
        value           uniform (0 0 0);

    }

    top
    {
/*       type   fixedDisplacement;*/
/*       value uniform (0 0.0001 0);*/
        type            fixedDisplacement;
        displacementSeries
        {
            fileName        "$FOAM_CASE/constant/timeVsDisp";
            outOfBounds     clamp;
        }
        value           uniform (0 0 0);
    }

    bottom
    {//type symmetryPlane;
/*//type empty;*/
       type   fixedDisplacement;
       value uniform (0 0 0);
    }

    front
    {
//type empty;
          type            solidTraction;
        traction        uniform (0 0 0);
        pressure        uniform 0;
        value           uniform (0 0 0);
    }

    back
    { //type empty;
//type symmetryPlane;
         type            solidTraction;
        traction        uniform (0 0 0);
        pressure        uniform 0;
        value           uniform (0 0 0);

    }


}

// ************************************************************************* //
