/*--------------------------------*- C++ -*----------------------------------*\
| =========                 |                                                 |
| \\      /  F ield         | foam-extend: Open Source CFD                    |
|  \\    /   O peration     | Version:  3.0                                   |
|   \\  /    A nd           | Web:         http://www.extend-project.de       |
|    \\/     M anipulation  |                                                 |
\*---------------------------------------------------------------------------*/
FoamFile
{
    version     2.0;
    format      binary;
    class       dictionary;
    location    "constant";
    object      mechanicalProperties;
}
// * * * * * * * * * * * * * * * * * * * * * * * * * * * * * * * * * * * * * //

planeStress     no;

mechanical
(
    steel
    {

        type  linearLemaitreDamage;

        rho             rho [1 -3 0 0 0 0 0] 2700;
        E               E [1 -1 -2 0 0 0 0] 200e9;
        nu              nu [0 0 0 0 0 0 0] 0.3; 

        fileName        "$FOAM_CASE/constant/plasticStrainVsYieldStress";
        outOfBounds     clamp;
        solvePressureEqn no;
        debug no;

        s0            s0 [1 -1 -2 0 0 0 0] 0.5e6;
        b            b [0 0 0 0 0 0 0] 1;
        epsilonD epsilonD [0 0 0 0 0 0 0] 0;
 
        charLength charLength [0 1 0 0 0 0 0] 0;

    }
);


// ************************************************************************* //
