/*--------------------------------*- C++ -*----------------------------------*\
| =========                 |                                                 |
| \\      /  F ield         | OpenFOAM Extend Project: Open Source CFD        |
|  \\    /   O peration     | Version:  1.6-ext                               |
|   \\  /    A nd           | Web:      www.extend-project.de                 |
|    \\/     M anipulation  |                                                 |
\*---------------------------------------------------------------------------*/
FoamFile
{
    version     2.0;
    format      ascii;
    class       dictionary;
    location    "constant/polyMesh";
    object      blockMeshDict;
}
// * * * * * * * * * * * * * * * * * * * * * * * * * * * * * * * * * * * * * //

// Model Description
// 140 degrees channel approx 47 meters long

// Setup m4 stuff



// define geometry in mm


  // notched radius
  // bar height
   // bar width






















// start of blockMeshDict

convertToMeters 0.001;

vertices
(
/*    (0 0 0) //0*/

/*    (1.499942885 0 -0.01308980325)//1*/
/*    (2.9998857 0 -0.0261796)//2*/
/*    (4.4998 3.968626967 -0.039269)//3*/
/*    (3.3748714 4.960783708 -0.02945205)//4*/
/*    (5.999771 5.196152423 -0.05235921)//5*/
/*    (5.999771 6.696152424 -0.05235921)//6*/
/*    (5.999771 60 -0.05235921)//7*/
/*    (3.3748714 60 -0.02945205)//8*/

/*    (0 60 0)//9*/
/*    (0 4.960783708 0)//10*/

/*    (1.499942885 0 0.01308980325)//11*/
/*    (2.9998857 0 0.0261796)//12*/
/*    (4.4998 3.968626967 0.039269)//13*/
/*    (3.3748714 4.960783708 0.02945205)//14*/
/*    (5.999771 5.196152423 0.05235921)//15*/
/*    (5.999771 6.696152424 0.05235921)//16*/
/*    (5.999771 60 0.05235921)//17*/
/*    (3.3748714 60 0.02945205)//18*/

(0 0 0)

(1.494297829379734 0 -0.13066750594932017)
(2.988595658759468 0 -0.26133501189864033)
(3.522456854271307 2.0 -0.3080180154934527)
(2.2283569732085127 2.75 -0.19485663589218716)
(4.980992764599113 3.464101615137755 -0.43555835316440056)
(4.980992764599113 5.5 -0.43555835316440056)
(4.980992764599113 30 -0.43555835316440056)
(2.2283569732085127 30 -0.19485663589218716)

(0 30 0)
(0 2.75 0)

(1.494297829379734 0 0.13066750594932017)
(2.988595658759468 0 0.26133501189864033)
(3.522456854271307 2.0 0.3080180154934527)
(2.2283569732085127 2.75 0.19485663589218716)
(4.980992764599113 3.464101615137755 0.43555835316440056)
(4.980992764599113 5.5 0.43555835316440056)
(4.980992764599113 30 0.43555835316440056)
(2.2283569732085127 30 0.19485663589218716)

);

blocks
(
/*    hex (0 1 4 10 0 11 14 10) (25 25 1) simpleGrading (1 1 1)*/
/*    hex (1 2 3 4 11 12 13 14) (25 25 1) simpleGrading (1 1 1)*/
/*    hex (3 5 6 4 13 15 16 14) (25 25 1) simpleGrading (1 1 1)*/
/*    hex (4 6 7 8 14 16 17 18) (25 25 1) simpleGrading (1 1 1)*/
/*    hex (10 4 8 9 10 14 18 9) (25 25 1) simpleGrading (1 1 1)*/
    hex (0 1 4 10 0 11 14 10) (10 10 1) simpleGrading (1 1 1)
    hex (1 2 3 4 11 12 13 14) (10 10 1) simpleGrading (1 1 1)
    hex (3 5 6 4 13 15 16 14) (10 10 1) simpleGrading (1 1 1)
    hex (4 6 7 8 14 16 17 18) (10 40 1) simpleGrading (1 1 1)
    hex (10 4 8 9 10 14 18 9) (10 40 1) simpleGrading (1 1 1)
);

edges
(
/*    arc 2 3 (3.343018454 2  -0.02917408)//2*/
/*    arc 12 13 (3.343018454 2 0.02917408)*/

/*    arc 1 4 (1.771516397 2 -0.01545978938)*/
/*    arc 11 14 (1.771516397 2 0.01545978938)*/

/*    arc 3 5 (5.031181454 4.5 -0.04390645538)*/
/*    arc 13 15(5.031181454 4.5 0.04390645538)*/

/*    arc 4 6 (4.499828654 6 -0.03926940974)*/
/*    arc 14 16 (4.499828654 6 0.03926940974)*/

arc 2 3 (3.124374228930543 1.0352761804100832 -0.27320804468821724)
arc 12 13 (3.124374228930543 1.0352761804100832 0.27320804468821724)
arc 1 4 (1.8247275108487917 1.8811107882911782 -0.159561627000886)
arc 11 14(1.8247275108487917 1.8811107882911782 0.159561627000886)
arc 3 5 (3.9208604076091693 2.5711504387461575 -0.3428560495536469)
arc 13 15 (3.9208604076091693 2.5711504387461575 0.3428560495536469)
arc 4 6 (2.7761618590480737 3.5353318532759666 -0.2427589327249542)
arc 14 16 (2.7761618590480737 3.5353318532759666 0.2427589327249542)

);

patches
(
    empty  axis
    (
        (0 10 10 0)
        (10 9 9 10)
    )
    patch right
    (
        (16 6 7 17)
        (15 5 6 16)
    )
    symmetryPlane  down
    (
        (0 1 11 0)
        (12 11 1 2)
    )
    patch up
    (
        (9 18 8 9)
        (18 17 7 8)
    )
    patch notchedFace
    (
        (15 13 3 5)
        (13 12 2 3)
    )
    wedge front
    (
        (11 14 10 0)
        (14 18 9 10)
        (14 16 17 18)
        (13 15 16 14)
        (11 12 13 14)
    )

    wedge back
    (
        (4 10 9 8)
        (6 4 8 7)
        (5 3 4 6)
        (2 1 4 3)
        (1 0 10 4)
    )
);

mergePatchPairs
(
);
