/*--------------------------------*- C++ -*----------------------------------*\
| =========                 |                                                 |
| \\      /  F ield         | OpenFOAM Extend Project: Open Source CFD        |
|  \\    /   O peration     | Version:  1.6-ext                               |
|   \\  /    A nd           | Web:      www.extend-project.de                 |
|    \\/     M anipulation  |                                                 |
\*---------------------------------------------------------------------------*/
FoamFile
{
    version     2.0;
    format      ascii;
    class       dictionary;
    location    "constant/polyMesh";
    object      blockMeshDict;
}
// * * * * * * * * * * * * * * * * * * * * * * * * * * * * * * * * * * * * * //

// Model Description
// 140 degrees channel approx 47 meters long

// Setup m4 stuff



// define geometry in mm


  // notched radius
  // bar height
   // bar width






















// start of blockMeshDict

convertToMeters 0.001;

vertices
(
/*    (0 0 0) //0*/

/*    (1.499942885 0 -0.01308980325)//1*/
/*    (2.9998857 0 -0.0261796)//2*/
/*    (4.4998 3.968626967 -0.039269)//3*/
/*    (3.3748714 4.960783708 -0.02945205)//4*/
/*    (5.999771 5.196152423 -0.05235921)//5*/
/*    (5.999771 6.696152424 -0.05235921)//6*/
/*    (5.999771 60 -0.05235921)//7*/
/*    (3.3748714 60 -0.02945205)//8*/

/*    (0 60 0)//9*/
/*    (0 4.960783708 0)//10*/

/*    (1.499942885 0 0.01308980325)//11*/
/*    (2.9998857 0 0.0261796)//12*/
/*    (4.4998 3.968626967 0.039269)//13*/
/*    (3.3748714 4.960783708 0.02945205)//14*/
/*    (5.999771 5.196152423 0.05235921)//15*/
/*    (5.999771 6.696152424 0.05235921)//16*/
/*    (5.999771 60 0.05235921)//17*/
/*    (3.3748714 60 0.02945205)//18*/

(0 0 0)

(4.32 0 0)
(8.64 0 0)
(9.82914646838 2.87085353162 0)
(6.77444517366 5.92555482634 0)
(12.7 4.06 0)
(12.7 8.38 0)
(12.6503612524 76.2 0)
(6.77444517366 76.2 0)

(0 76.2 0)
(0 5.92555482634 0)

(0 0 2.37)

(4.32 0 2.37)
(8.64 0 2.37)
(9.82914646838 2.87085353162 2.37)
(6.77444517366 5.92555482634 2.37)
(12.7 4.06 2.37)
(12.7 8.38 2.37)
(12.6503612524 76.2 2.37)
(6.77444517366 76.2 2.37)

(0 76.2 2.37)
(0 5.92555482634 2.37)



);

blocks
(
    hex (0 1 4 10 11 12 15 21) (7 7 3) simpleGrading (1 1 1)
    hex (1 2 3 4 12 13 14 15) (7 7 3) simpleGrading (1 1 1)
    hex (3 5 6 4 14 16 17 15) (7 7 3) simpleGrading (1 1 1)
    hex (4 6 7 8 15 17 18 19) (7 7 3) simpleGrading (1 1 1)
    hex (10 4 8 9 21 15 19 20) (7 7 3) simpleGrading (1 1 1)


);

edges
(

arc 2 3 (8.949049098 1.5536947354 0)
arc 13 14 (8.949049098 1.5536947354 2.37)
arc 1 4 (5.44270711629 4.19 0)
arc 12 15 (5.44270711629 4.19 2.37)
arc 3 5 (10.67 3.51606313936 0)
arc 14 16 (10.67 3.51606313936 2.37)
arc 4 6 (8.51 7.25729288371 0)
arc 15 17 (8.51 7.25729288371 2.37)

);

patches
(
    symmetryPlane left
    (
        (11 21 10 0)
        (21 20 9 10)
    )
    patch right
    (
        (5 6 17 16)
        (6 7 18 17)
    )
    symmetryPlane  down
    (
        (13 12 1 2)
        (12 11 0 1)
    )
    patch up
    (
        (8 9 20 19)
        (7 8 19 18)
    )
    patch notchedFace
    (
        (2 3 14 13)
        (3 5 16 14)
    )
    patch front
    (
        (11 12 15 21)
        (12 13 14 15)
        (14 16 17 15)
        (15 17 18 19)
        (21 15 19 20)
    )
    patch back
    (
        (1 0 10 4)
        (2 1 4 3)
        (5 3 4 6)
        (6 4 8 7)
        (4 10 9 8)
    )
);

mergePatchPairs
(
);
