/*--------------------------------*- C++ -*----------------------------------*\
| =========                 |                                                 |
| \\      /  F ield         | foam-extend: Open Source CFD                    |
|  \\    /   O peration     | Version:  3.0                                   |
|   \\  /    A nd           | Web:         http://www.extend-project.de       |
|    \\/     M anipulation  |                                                 |
\*---------------------------------------------------------------------------*/
FoamFile
{
    version     2.0;
    format      binary;
    class       dictionary;
    location    "constant";
    object      mechanicalProperties;
}
// * * * * * * * * * * * * * * * * * * * * * * * * * * * * * * * * * * * * * //

planeStress     no;

mechanical
(
    steel
    {

        outOfBounds     clamp;

        solvePressureEqn yes;
        pressureSmoothingScaleFactor 100;
        debug no;     

        type logStrainPhaseFieldFracture;
        rho             rho [ 1 -3 0 0 0 0 0 ] 2700;
        E               E [ 1 -1 -2 0 0 0 0 ] 68.8e9;
        nu              nu [ 0 0 0 0 0 0 0 ] 0.33;

        fileName        "$FOAM_CASE/constant/plasticStrainVsYieldStress";

        Gc            Gc [1 -1 -2 0 0 0 0] 60e3;//
        w0            w0 [1 -1 -2 0 0 0 0] 1e7;//
        charLength    charLength [0 1 0 0 0 0 0] 3.226e-4;

        d1            d1 [0 0 0 0 0 0 0] 0.1;
        d2            d2 [0 0 0 0 0 0 0] 3.8;
        d3            d3 [0 0 0 0 0 0 0] -1.8;
        monolithic true;
        triaxiality false;

    }
);


// ************************************************************************* //
