/*--------------------------------*- C++ -*----------------------------------*\
| =========                 |                                                 |
| \\      /  F ield         | OpenFOAM Extend Project: Open Source CFD        |
|  \\    /   O peration     | Version:  1.6-ext                               |
|   \\  /    A nd           | Web:      www.extend-project.de                 |
|    \\/     M anipulation  |                                                 |
\*---------------------------------------------------------------------------*/
FoamFile
{
    version     2.0;
    format      ascii;
    class       dictionary;
    location    "constant/polyMesh";
    object      blockMeshDict;
}
// * * * * * * * * * * * * * * * * * * * * * * * * * * * * * * * * * * * * * //

// Model Description
// 140 degrees channel approx 47 meters long

// Setup m4 stuff



// define geometry in mm


  // notched radius
  // bar height
   // bar width






















// start of blockMeshDict

convertToMeters 0.001;

vertices
(
 (0 0 0)

(2.49762055395 0 -0.109048468413)
(4.99524110791 0 -0.218096936827)
(6.16569890539 2.82842712475 -0.269200227899)
(4.39961447485 4.59619407771 -0.192091316406)
(8.99143399424 4.0 -0.392574486288)
(8.99143399424 6.5 -0.392574486288)
(8.99143399424 20 -0.392574486288)
(4.39961447485 20 -0.192091316406)

(0 20 0)
(0 4.59619407771 0)

(2.49762055395 0 0.109048468413)
(4.99524110791 0 0.218096936827)
(6.16569890539 2.82842712475 0.269200227899)
(4.39961447485 4.59619407771 0.192091316406)
(8.99143399424 4.0 0.392574486288)
(8.99143399424 6.5 0.392574486288)
(8.99143399424 20 0.392574486288)
(4.39961447485 20 0.192091316406)


);

blocks
(
    hex (0 1 4 10 0 11 14 10) (40 40 1) simpleGrading (1 1 1)
    hex (1 2 3 4 11 12 13 14) (40 40 1) simpleGrading (1 1 1)
    hex (3 5 6 4 13 15 16 14) (40 40 1) simpleGrading (1 1 1)
    hex (4 6 7 8 14 16 17 18) (40 40 1) simpleGrading (1 1 1)
    hex (10 4 8 9 10 14 18 9) (40 40 1) simpleGrading (1 1 1)
/*    hex (0 1 4 10 0 11 14 10) (12 12 1) simpleGrading (1 1 1)*/
/*    hex (1 2 3 4 11 12 13 14) (12 12 1) simpleGrading (1 1 1)*/
/*    hex (3 5 6 4 13 15 16 14) (12 12 1) simpleGrading (1 1 1)*/
/*    hex (4 6 7 8 14 16 17 18) (12 12 1) simpleGrading (1 1 1)*/
/*    hex (10 4 8 9 10 14 18 9) (12 12 1) simpleGrading (1 1 1)*/
);

edges
(
arc 2 3 (5.29943317859 1.53073372946 -0.231378249458)
arc 12 13 (5.29943317859 1.53073372946 0.231378249458)
arc 1 4 (3.36762658752 3.25 -0.147033752175)
arc 11 14(3.36762658752 3.25 0.147033752175)
arc 3 5 (6.99333755107 3.46410161514 -0.305335711557)
arc 13 15 (6.99333755107 3.46410161514 0.305335711557)
arc 4 6 (5.7445272741 5.6291651246 -0.250811477351)
arc 14 16 (5.7445272741 5.6291651246 0.250811477351)

    // arc 7 17(calc(para3*cosArcZ) 20 calc(para3*sinArcZ))
    // arc 6 16(calc(para3*cosArcZ) 6.5 calc(para3*sinArcZ))
    // arc 5 15(calc(para3*cosArcZ) 4 calc(para3*sinArcZ))
    // arc 3 13(calc((para3-para1*cos45)*cosArcZ) 2.8284 calc((para3-para1*cos45)*sinArcZ))
    // arc 2 12(calc(var1*cosArcZ) 0 calc(var1*sinArcZ))
);

patches
(
    empty  axis
    (
        (0 10 10 0)
        (10 9 9 10)
    )
    patch right
    (
        (16 6 7 17)
        (15 5 6 16)
    )
    symmetryPlane  down
    (
        (0 1 11 0)
        (12 11 1 2)
    )
    patch up
    (
        (9 18 8 9)
        (18 17 7 8)
    )
    patch notchedFace
    (
        (15 13 3 5)
        (13 12 2 3)
    )
    wedge front
    (
        (11 14 10 0)
        (14 18 9 10)
        (14 16 17 18)
        (13 15 16 14)
        (11 12 13 14)
    )

    wedge back
    (
        (4 10 9 8)
        (6 4 8 7)
        (5 3 4 6)
        (2 1 4 3)
        (1 0 10 4)
    )
);

mergePatchPairs
(
);
